*Heading
** Job name: Merge-11 Model name: Job-1
** Generated by: Abaqus/CAE 6.14-4
*Preprint, echo=NO, model=NO, history=NO, contact=NO
** ----------------------------------------------------------------
** 
** PART INSTANCE: Part-1-1
** 
*Node
      1,        -300.,         -10.,         -30.
      2,        -250.,         -10.,         -30.
      3,        -300.,         -10.,         -50.
      4,        -250.,         -10.,         -50.
      5,        -300.,         -10.,         -25.
      6,        -300.,         -10.,         -20.
      7,        -250.,         -10.,         -20.
      8,        -250.,         -10.,         -25.
      9,        -295.,         -10.,         -30.
     10,        -290.,         -10.,         -30.
     11,        -285.,         -10.,         -30.
     12,        -280.,         -10.,         -30.
     13,        -275.,         -10.,         -30.
     14,        -270.,         -10.,         -30.
     15,        -265.,         -10.,         -30.
     16,        -260.,         -10.,         -30.
     17,        -255.,         -10.,         -30.
     18,        -300.,         -10.,         -45.
     19,        -300.,         -10.,         -40.
     20,        -300.,         -10.,         -35.
** ... 4065 like lines cut
*Element, type=S4R
  1, 3462, 3605, 3217, 3181
  2, 3605, 3813, 3239, 3217
  3, 3813, 3814, 3240, 3239
  4, 3814, 4020, 3321, 3240
  5, 3181, 3217, 3218, 3180
  6, 3217, 3239, 3241, 3218
  7, 3239, 3240, 3242, 3241
  8, 3240, 3321, 3322, 3242
  9, 3180, 3218, 3219, 3179
 10, 3218, 3241, 3243, 3219
 11, 3241, 3242, 3244, 3243
 12, 3242, 3322, 3323, 3244
 13, 3179, 3219, 3220, 3178
 14, 3219, 3243, 3245, 3220
 15, 3243, 3244, 3246, 3245
 16, 3244, 3323, 3324, 3246
 17, 3178, 3220, 3221, 3177
 18, 3220, 3245, 3247, 3221
 19, 3245, 3246, 3248, 3247
 20, 3246, 3324, 3325, 3248
** ... 380 like lines cut
*Element, type=B31
2161,  703,   78
2162,   78,   79
2163,   79,   80
2164,   80,   81
2165,   81,   82
2166,   82,   83
2167,   83,   84
2168,   84,   85
2169,   85,   86
2170,   86,   87
2171,   87,   88
2172,   88,   89
2173,   89,    2
2174,  748,  149
2175,  149,  150
2176,  150,  151
2177,  151,  152
2178,  152,  153
2179,  153,  154
2180,  154,  155
** ... 684 like lines cut
*Element, type=T3D2
2865, 1250, 2462
2866, 1251, 2462
2867,  747, 2462
2868,  748, 2462
2869,   96, 2462
2870, 1521, 2771
2871, 1522, 2771
2872,  895, 2771
2873,  896, 2771
2874,  642, 2771
2875, 2312, 2462
2876, 3172, 2462
2877, 3171, 2462
2878, 3462, 2462
2879, 3463, 2462
2880, 2621, 2771
2881, 3320, 2771
2882, 3319, 2771
2883, 4020, 2771
2884, 4021, 2771
*Element, type=C3D8R
401, 2248, 1931,  969, 1194, 2241, 1915,  949, 1187
402, 1931, 1916,  951,  969, 1915, 1913,  940,  949
403, 1194,  969,  970, 1195, 1187,  949,  950, 1186
404,  969,  951,  952,  970,  949,  940,  941,  950
405, 1195,  970,  963, 1188, 1186,  950,  942, 1185
406,  970,  952,  948,  963,  950,  941,  939,  942
407, 2247, 1932,  971, 1196, 2248, 1931,  969, 1194
408, 1932, 1917,  953,  971, 1931, 1916,  951,  969
409, 1196,  971,  972, 1197, 1194,  969,  970, 1195
410,  971,  953,  954,  972,  969,  951,  952,  970
411, 1197,  972,  964, 1189, 1195,  970,  963, 1188
412,  972,  954,  947,  964,  970,  952,  948,  963
413, 2246, 1933,  973, 1198, 2247, 1932,  971, 1196
414, 1933, 1918,  955,  973, 1932, 1917,  953,  971
415, 1198,  973,  974, 1199, 1196,  971,  972, 1197
416,  973,  955,  956,  974,  971,  953,  954,  972
417, 1199,  974,  965, 1190, 1197,  972,  964, 1189
418,  974,  956,  946,  965,  972,  954,  947,  964
419, 2245, 1934,  975, 1200, 2246, 1933,  973, 1198
420, 1934, 1919,  957,  975, 1933, 1918,  955,  973
** ... 1740 like lines cut
*Nset, nset=Part-1-1__PICKEDSET20_#1
   96,   97,   98,   99,  100,  101,  102,  103,  104,  105,  234,  235,  236,  237,  238,  239
  240,  241,  242,  243,  441,  442,  443,  444,  445,  446,  447,  448,  449,  450,  451,  452
  453,  454,  455,  456,  457,  458,  459,  460,  642,  643,  644,  645,  646,  647,  648,  649
  650,  651,  747,  748,  749,  750,  751,  752,  753,  754,  755,  756,  757,  758,  759,  760
  761,  762,  763,  764,  765,  766,  791,  792,  793,  794,  795,  796,  797,  798,  799,  800
  801,  802,  803,  804,  805,  806,  807,  808,  809,  810,  811,  812,  813,  814,  815,  816
  817,  818,  819,  820,  821,  822,  823,  824,  825,  826,  827,  828,  829,  830,  831,  832
  833,  834,  835,  836,  837,  838,  839,  840,  841,  842,  843,  844,  845,  846,  847,  848
  849,  850,  895,  896,  897,  898,  899,  900,  901,  902,  903,  904,  905,  906,  907,  908
  909,  910,  911,  912,  913,  914, 1250, 1251, 1252, 1253, 1254, 1255, 1256, 1257, 1258, 1259
 1260, 1261, 1262, 1263, 1264, 1265, 1266, 1267, 1268, 1269, 1396, 1397, 1398, 1399, 1400, 1401
 1402, 1403, 1404, 1405, 1406, 1407, 1408, 1409, 1410, 1411, 1412, 1413, 1414, 1415, 1416, 1417
 1418, 1419, 1420, 1421, 1422, 1423, 1424, 1425, 1426, 1427, 1428, 1429, 1430, 1431, 1432, 1433
 1434, 1435, 1436, 1437, 1438, 1439, 1440, 1441, 1442, 1443, 1444, 1445, 1446, 1447, 1448, 1449
 1450, 1451, 1452, 1453, 1454, 1455, 1521, 1522, 1523, 1524, 1525, 1526, 1527, 1528, 1529, 1530
 1531, 1532, 1533, 1534, 1535, 1536, 1537, 1538, 1539, 1540, 2312, 2313, 2314, 2315, 2316, 2317
 2318, 2319, 2320, 2321, 2322, 2323, 2324, 2325, 2326, 2327, 2328, 2329, 2330, 2331, 2490, 2491
 2492, 2493, 2494, 2495, 2496, 2497, 2498, 2499, 2500, 2501, 2502, 2503, 2504, 2505, 2506, 2507
 2508, 2509, 2510, 2511, 2512, 2513, 2514, 2515, 2516, 2517, 2518, 2519, 2520, 2521, 2522, 2523
 2524, 2525, 2526, 2527, 2528, 2529, 2530, 2531, 2532, 2533, 2534, 2535, 2536, 2537, 2538, 2539
** ... 12 like lines cut
*Elset, elset=Part-1-1__PICKEDSET20_#1, generate
   1,  400,    1
*Nset, nset=Part-1-1__PICKEDSET4_#2
  939,  940,  941,  942,  943,  944,  945,  946,  947,  948,  949,  950,  951,  952,  953,  954
  955,  956,  957,  958,  959,  960,  961,  962,  963,  964,  965,  966,  967,  968,  969,  970
  971,  972,  973,  974,  975,  976,  977,  978,  979,  980,  981,  982,  983,  984,  985,  986
  987,  988,  989,  990,  991,  992,  993,  994,  995,  996,  997,  998,  999, 1000, 1001, 1002
 1003, 1004, 1005, 1006, 1007, 1008, 1009, 1010, 1011, 1012, 1013, 1014, 1015, 1016, 1017, 1018
 1019, 1020, 1021, 1022, 1023, 1024, 1025, 1026, 1027, 1028, 1029, 1030, 1031, 1032, 1033, 1034
 1035, 1036, 1037, 1038, 1039, 1040, 1041, 1042, 1043, 1044, 1045, 1046, 1047, 1048, 1049, 1050
 1051, 1052, 1053, 1054, 1055, 1056, 1057, 1058, 1059, 1060, 1061, 1062, 1063, 1064, 1065, 1066
 1067, 1068, 1069, 1070, 1071, 1072, 1073, 1074, 1075, 1076, 1077, 1078, 1079, 1080, 1081, 1082
 1083, 1084, 1085, 1086, 1087, 1088, 1089, 1090, 1091, 1092, 1093, 1094, 1095, 1096, 1097, 1098
 1099, 1100, 1101, 1102, 1103, 1104, 1105, 1106, 1107, 1108, 1109, 1110, 1111, 1112, 1113, 1114
 1115, 1116, 1117, 1118, 1119, 1120, 1121, 1122, 1123, 1124, 1125, 1126, 1127, 1128, 1129, 1130
 1131, 1132, 1133, 1134, 1135, 1136, 1137, 1138, 1139, 1140, 1141, 1142, 1143, 1144, 1145, 1146
 1147, 1148, 1149, 1150, 1151, 1152, 1153, 1154, 1155, 1156, 1157, 1158, 1159, 1160, 1161, 1162
 1163, 1164, 1165, 1166, 1167, 1168, 1169, 1170, 1171, 1172, 1173, 1174, 1175, 1176, 1177, 1178
 1179, 1180, 1181, 1182, 1183, 1184, 1185, 1186, 1187, 1188, 1189, 1190, 1191, 1192, 1193, 1194
 1195, 1196, 1197, 1198, 1199, 1200, 1201, 1202, 1203, 1204, 1205, 1270, 1271, 1272, 1273, 1274
 1275, 1276, 1277, 1278, 1279, 1280, 1281, 1282, 1283, 1284, 1285, 1286, 1287, 1288, 1289, 1290
 1315, 1316, 1317, 1318, 1319, 1320, 1321, 1322, 1323, 1324, 1325, 1326, 1327, 1328, 1329, 1330
 1331, 1332, 1333, 1334, 1335, 1336, 1337, 1338, 1339, 1340, 1341, 1342, 1343, 1344, 1345, 1346
** ... 34 like lines cut
*Elset, elset=Part-1-1__PICKEDSET4_#2, generate
 401,  880,    1
*Nset, nset=Part-1-1__PICKEDSET4_#3
 1456, 1457, 1458, 1459, 1460, 1461, 1462, 1463, 1464, 1465, 1466, 1467, 1468, 1469, 1470, 1471
 1472, 1473, 1474, 1475, 1476, 1541, 1542, 1543, 1544, 1545, 1546, 1547, 1548, 1549, 1550, 1551
 1552, 1553, 1554, 1555, 1556, 1557, 1558, 1559, 1560, 1561, 1586, 1587, 1588, 1589, 1590, 1591
 1592, 1593, 1594, 1595, 1596, 1597, 1598, 1599, 1600, 1601, 1602, 1603, 1604, 1605, 1606, 1607
 1608, 1609, 1610, 1611, 1612, 1613, 1614, 1615, 1616, 1617, 1618, 1619, 1620, 1621, 1622, 1623
 1624, 1625, 1626, 1627, 1628, 1629, 1630, 1631, 1632, 1633, 1634, 1635, 1636, 1637, 1638, 1639
 1640, 1641, 1642, 1643, 1644, 1645, 1646, 1647, 1648, 1649, 1650, 1651, 1652, 1653, 1654, 1655
 1656, 1657, 1658, 1659, 1660, 1661, 1662, 1663, 1664, 1665, 1666, 1667, 1668, 1669, 1670, 1671
 1672, 1673, 1674, 1675, 1676, 1677, 1678, 1679, 1680, 1681, 1682, 1683, 1684, 1685, 1686, 1687
 1688, 1689, 1690, 1691, 1692, 1693, 1694, 1695, 1696, 1697, 1698, 1699, 1700, 1701, 1702, 1703
 1704, 1705, 1706, 1707, 1708, 1709, 1710, 1711, 1712, 1713, 1714, 1715, 1716, 1717, 1718, 1719
 1720, 1721, 1722, 1723, 1724, 1725, 1726, 1727, 1728, 1729, 1730, 1731, 1732, 1733, 1734, 1735
 1736, 1737, 1738, 1739, 1740, 1741, 1742, 1743, 1744, 1745, 1746, 1747, 1748, 1749, 1750, 1751
 1752, 1753, 1754, 1755, 1756, 1757, 1758, 1759, 1760, 1761, 1762, 1763, 1764, 1765, 1766, 1767
 1768, 1769, 1770, 1771, 1772, 1773, 1774, 1775, 1776, 1777, 1778, 1779, 1780, 1781, 1782, 1783
 1784, 1785, 1786, 1787, 1788, 1789, 1790, 1791, 1792, 1793, 1794, 1795, 1796, 1797, 1798, 1799
 1800, 1801, 1802, 1803, 1804, 1805, 1806, 1807, 1808, 1809, 1810, 1811, 1812, 1813, 1814, 1815
 1816, 1817, 1818, 1819, 1820, 1821, 1822, 1823, 1824, 1825, 1826, 1827, 1828, 1829, 1830, 1831
 1832, 1833, 1834, 1835, 1836, 1837, 1838, 1839, 1840, 1841, 1842, 1843, 1844, 1845, 1846, 1847
 1848, 1849, 1850, 1851, 1852, 1853, 1854, 1855, 1856, 1857, 1858, 1859, 1860, 1861, 1862, 1863
** ... 34 like lines cut
*Elset, elset=Part-1-1__PICKEDSET4_#3, generate
  881,  1360,     1
*Nset, nset=Part-1-1__PICKEDSET2_#4
   1,   2,   3,   4,   5,   6,   7,   8,   9,  10,  11,  12,  13,  14,  15,  16
  17,  18,  19,  20,  21,  22,  23,  24,  25,  26,  27,  28,  29,  30,  31,  32
  33,  34,  35,  36,  37,  38,  39,  40,  41,  42,  43,  44,  45,  46,  47,  48
  49,  50,  51,  52,  53,  54,  55,  56,  57,  58,  59,  60,  61,  62,  63,  64
  65,  66,  67,  68,  69,  70,  71,  72,  73,  74,  75,  76,  77,  96, 106, 107
 108, 109, 110, 111, 112, 113, 114, 115, 116, 117, 118, 119, 120, 121, 122, 123
 124, 125, 126, 127, 128, 129, 130, 131, 132, 133, 134, 135, 136, 137, 138, 139
 140, 141, 142, 143, 144, 145, 146, 147, 148, 157, 158, 159, 160, 161, 162, 163
 164, 165, 166, 167, 168, 169, 170, 171, 172, 173, 174, 175, 176, 177, 178, 179
 180, 181, 182, 183, 184, 185, 186, 187, 188, 189, 190, 191, 192, 193, 194, 195
 196, 197, 198, 199, 200, 201, 202, 203, 204, 205, 206, 207, 208, 209, 210, 211
 212, 213, 214, 215, 216, 217, 218, 219, 220, 221, 222, 223, 224, 225, 226, 227
 228, 229, 230, 231, 232, 233, 234, 244, 245, 246, 247, 248, 249, 250, 251, 252
 253, 254, 255, 256, 257, 258, 259, 260, 261, 262, 263, 264, 265, 266, 267, 268
 269, 270, 271, 272, 273, 274, 275, 276, 277, 278, 279, 280, 281, 282, 283, 284
 285, 286, 287, 288, 289, 290, 291, 292, 293, 294, 295, 296, 297, 298, 299, 300
 301, 302, 303, 304, 305, 306, 307, 308, 309, 310, 311, 312, 313, 314, 315, 316
 317, 318, 319, 320, 321, 322, 323, 324, 325, 326, 327, 328, 329, 330, 331, 332
 333, 334, 335, 336, 337, 338, 339, 340, 341, 342, 343, 344, 345, 346, 347, 348
 349, 350, 351, 352, 353, 354, 355, 356, 357, 358, 359, 360, 361, 362, 363, 364
** ... 18 like lines cut
*Elset, elset=Part-1-1__PICKEDSET2_#4, generate
 1361,  1760,     1
*Nset, nset=Part-1-1__PICKEDSET2_#5
 3363, 3364, 3365, 3366, 3367, 3368, 3369, 3370, 3371, 3372, 3373, 3374, 3375, 3376, 3377, 3378
 3379, 3380, 3381, 3382, 3383, 3384, 3385, 3386, 3387, 3388, 3389, 3390, 3391, 3392, 3393, 3394
 3395, 3396, 3397, 3398, 3399, 3400, 3401, 3402, 3403, 3404, 3405, 3406, 3407, 3408, 3409, 3410
 3411, 3412, 3413, 3414, 3415, 3416, 3417, 3418, 3419, 3420, 3421, 3422, 3423, 3424, 3425, 3426
 3427, 3428, 3429, 3430, 3431, 3432, 3433, 3434, 3435, 3436, 3437, 3438, 3439, 3463, 3473, 3474
 3475, 3476, 3477, 3478, 3479, 3480, 3481, 3482, 3483, 3484, 3485, 3486, 3487, 3488, 3489, 3490
 3491, 3492, 3493, 3494, 3495, 3496, 3497, 3498, 3499, 3500, 3501, 3502, 3503, 3504, 3505, 3506
 3507, 3508, 3509, 3510, 3511, 3512, 3513, 3514, 3515, 3528, 3529, 3530, 3531, 3532, 3533, 3534
 3535, 3536, 3537, 3538, 3539, 3540, 3541, 3542, 3543, 3544, 3545, 3546, 3547, 3548, 3549, 3550
 3551, 3552, 3553, 3554, 3555, 3556, 3557, 3558, 3559, 3560, 3561, 3562, 3563, 3564, 3565, 3566
 3567, 3568, 3569, 3570, 3571, 3572, 3573, 3574, 3575, 3576, 3577, 3578, 3579, 3580, 3581, 3582
 3583, 3584, 3585, 3586, 3587, 3588, 3589, 3590, 3591, 3592, 3593, 3594, 3595, 3596, 3597, 3598
 3599, 3600, 3601, 3602, 3603, 3604, 3606, 3616, 3617, 3618, 3619, 3620, 3621, 3622, 3623, 3624
 3625, 3626, 3627, 3628, 3629, 3630, 3631, 3632, 3633, 3634, 3635, 3636, 3637, 3638, 3639, 3640
 3641, 3642, 3643, 3644, 3645, 3646, 3647, 3648, 3649, 3650, 3651, 3652, 3653, 3654, 3655, 3656
 3657, 3658, 3659, 3660, 3661, 3662, 3663, 3664, 3665, 3666, 3667, 3668, 3669, 3670, 3671, 3672
 3673, 3674, 3675, 3676, 3677, 3678, 3679, 3680, 3681, 3682, 3683, 3684, 3685, 3686, 3687, 3688
 3689, 3690, 3691, 3692, 3693, 3694, 3695, 3696, 3697, 3698, 3699, 3700, 3701, 3702, 3703, 3704
 3705, 3706, 3707, 3708, 3709, 3710, 3711, 3712, 3713, 3714, 3715, 3716, 3717, 3718, 3719, 3720
 3721, 3722, 3723, 3724, 3725, 3726, 3727, 3728, 3729, 3730, 3731, 3732, 3733, 3734, 3735, 3736
** ... 18 like lines cut
*Elset, elset=Part-1-1__PICKEDSET2_#5, generate
 1761,  2160,     1
*Nset, nset=Part-1-1__PICKEDSET2_#6
    2,   78,   79,   80,   81,   82,   83,   84,   85,   86,   87,   88,   89,   90,   91,   92
   93,   94,   95,  149,  150,  151,  152,  153,  154,  155,  156,  703,  704,  705,  706,  707
  708,  709,  710,  711,  712,  713,  714,  715,  716,  717,  718,  719,  720,  721,  722,  723
  724,  725,  726,  727,  728,  729,  730,  731,  732,  733,  734,  735,  736,  737,  738,  739
  740,  741,  742,  743,  744,  745,  746,  747,  748,  767,  768,  769,  770,  771,  772,  773
  774,  775,  776,  777,  778,  779,  780,  781,  782,  783,  784,  785,  786,  787,  788,  789
  790, 1206, 1207, 1208, 1209, 1210, 1211, 1212, 1213, 1214, 1215, 1216, 1217, 1218, 1219, 1220
 1221, 1222, 1223, 1224, 1225, 1226, 1227, 1228, 1229, 1230, 1231, 1232, 1233, 1234, 1235, 1236
 1237, 1238, 1239, 1240, 1241, 1242, 1243, 1244, 1245, 1246, 1247, 1248, 1249, 1250, 1251, 1291
 1292, 1293, 1294, 1295, 1296, 1297, 1298, 1299, 1300, 1301, 1302, 1303, 1304, 1305, 1306, 1307
 1308, 1309, 1310, 1311, 1312, 1313, 1314, 2245, 2269, 2270, 2271, 2272, 2273, 2274, 2275, 2276
 2277, 2278, 2279, 2280, 2281, 2282, 2283, 2284, 2285, 2286, 2287, 2288, 2289, 2290, 2291, 2292
 2293, 2294, 2295, 2296, 2297, 2298, 2299, 2300, 2301, 2302, 2303, 2304, 2305, 2306, 2307, 2308
 2309, 2310, 2311, 2312, 2313, 2337, 2359, 2360, 2361, 2362, 2363, 2364, 2365, 2366, 2367, 2368
 2369, 2370, 2371, 2372, 2373, 2374, 2375, 2376, 2377, 2378, 2379, 2380, 2381, 3127, 3128, 3129
 3130, 3131, 3132, 3133, 3134, 3135, 3136, 3137, 3138, 3139, 3140, 3141, 3142, 3143, 3144, 3145
 3146, 3147, 3148, 3149, 3150, 3151, 3152, 3153, 3154, 3155, 3156, 3157, 3158, 3159, 3160, 3161
 3162, 3163, 3164, 3165, 3166, 3167, 3168, 3169, 3170, 3171, 3172, 3191, 3192, 3193, 3194, 3195
 3196, 3197, 3198, 3199, 3200, 3201, 3202, 3203, 3204, 3205, 3206, 3207, 3208, 3209, 3210, 3211
 3212, 3213, 3214, 3363, 3440, 3441, 3442, 3443, 3444, 3445, 3446, 3447, 3448, 3449, 3450, 3451
 3452, 3453, 3454, 3455, 3456, 3457, 3458, 3459, 3460, 3461, 3462, 3516, 3517, 3518, 3519, 3520
 3521, 3522, 3523, 3524, 3525, 3526, 3527
*Elset, elset=Part-1-1__PICKEDSET2_#6, generate
 2161,  2512,     1
*Nset, nset=Part-1-1__PICKEDSET2_#7
  548,  624,  625,  626,  627,  628,  629,  630,  631,  632,  633,  634,  635,  636,  637,  638
  639,  640,  641,  695,  696,  697,  698,  699,  700,  701,  702,  851,  852,  853,  854,  855
  856,  857,  858,  859,  860,  861,  862,  863,  864,  865,  866,  867,  868,  869,  870,  871
  872,  873,  874,  875,  876,  877,  878,  879,  880,  881,  882,  883,  884,  885,  886,  887
  888,  889,  890,  891,  892,  893,  894,  895,  896,  915,  916,  917,  918,  919,  920,  921
  922,  923,  924,  925,  926,  927,  928,  929,  930,  931,  932,  933,  934,  935,  936,  937
  938, 1477, 1478, 1479, 1480, 1481, 1482, 1483, 1484, 1485, 1486, 1487, 1488, 1489, 1490, 1491
 1492, 1493, 1494, 1495, 1496, 1497, 1498, 1499, 1500, 1501, 1502, 1503, 1504, 1505, 1506, 1507
 1508, 1509, 1510, 1511, 1512, 1513, 1514, 1515, 1516, 1517, 1518, 1519, 1520, 1521, 1522, 1562
 1563, 1564, 1565, 1566, 1567, 1568, 1569, 1570, 1571, 1572, 1573, 1574, 1575, 1576, 1577, 1578
 1579, 1580, 1581, 1582, 1583, 1584, 1585, 2555, 2578, 2579, 2580, 2581, 2582, 2583, 2584, 2585
 2586, 2587, 2588, 2589, 2590, 2591, 2592, 2593, 2594, 2595, 2596, 2597, 2598, 2599, 2600, 2601
 2602, 2603, 2604, 2605, 2606, 2607, 2608, 2609, 2610, 2611, 2612, 2613, 2614, 2615, 2616, 2617
 2618, 2619, 2620, 2621, 2622, 2641, 2668, 2669, 2670, 2671, 2672, 2673, 2674, 2675, 2676, 2677
 2678, 2679, 2680, 2681, 2682, 2683, 2684, 2685, 2686, 2687, 2688, 2689, 2690, 3275, 3276, 3277
 3278, 3279, 3280, 3281, 3282, 3283, 3284, 3285, 3286, 3287, 3288, 3289, 3290, 3291, 3292, 3293
 3294, 3295, 3296, 3297, 3298, 3299, 3300, 3301, 3302, 3303, 3304, 3305, 3306, 3307, 3308, 3309
 3310, 3311, 3312, 3313, 3314, 3315, 3316, 3317, 3318, 3319, 3320, 3339, 3340, 3341, 3342, 3343
 3344, 3345, 3346, 3347, 3348, 3349, 3350, 3351, 3352, 3353, 3354, 3355, 3356, 3357, 3358, 3359
 3360, 3361, 3362, 3921, 3998, 3999, 4000, 4001, 4002, 4003, 4004, 4005, 4006, 4007, 4008, 4009
 4010, 4011, 4012, 4013, 4014, 4015, 4016, 4017, 4018, 4019, 4020, 4074, 4075, 4076, 4077, 4078
 4079, 4080, 4081, 4082, 4083, 4084, 4085
*Elset, elset=Part-1-1__PICKEDSET2_#7, generate
 2513,  2864,     1
*Nset, nset=Part-1-1__PICKEDSET2_#8
 1250, 2462
*Elset, elset=Part-1-1__PICKEDSET2_#8
 2865,
*Nset, nset=Part-1-1__PICKEDSET2_#9
 1251, 2462
*Elset, elset=Part-1-1__PICKEDSET2_#9
 2866,
*Nset, nset=Part-1-1__PICKEDSET2_#10
  747, 2462
*Elset, elset=Part-1-1__PICKEDSET2_#10
 2867,
*Nset, nset=Part-1-1__PICKEDSET2_#11
  748, 2462
*Elset, elset=Part-1-1__PICKEDSET2_#11
 2868,
*Nset, nset=Part-1-1__PICKEDSET2_#12
   96, 2462
*Elset, elset=Part-1-1__PICKEDSET2_#12
 2869,
*Nset, nset=Part-1-1__PICKEDSET2_#13
 1521, 2771
*Elset, elset=Part-1-1__PICKEDSET2_#13
 2870,
*Nset, nset=Part-1-1__PICKEDSET2_#14
 1522, 2771
*Elset, elset=Part-1-1__PICKEDSET2_#14
 2871,
*Nset, nset=Part-1-1__PICKEDSET2_#15
  895, 2771
*Elset, elset=Part-1-1__PICKEDSET2_#15
 2872,
*Nset, nset=Part-1-1__PICKEDSET2_#16
  896, 2771
*Elset, elset=Part-1-1__PICKEDSET2_#16
 2873,
*Nset, nset=Part-1-1__PICKEDSET2_#17
  642, 2771
*Elset, elset=Part-1-1__PICKEDSET2_#17
 2874,
*Nset, nset=Part-1-1__PICKEDSET2_#18
 2312, 2462
*Elset, elset=Part-1-1__PICKEDSET2_#18
 2875,
*Nset, nset=Part-1-1__PICKEDSET2_#19
 2462, 3172
*Elset, elset=Part-1-1__PICKEDSET2_#19
 2876,
*Nset, nset=Part-1-1__PICKEDSET2_#20
 2462, 3171
*Elset, elset=Part-1-1__PICKEDSET2_#20
 2877,
*Nset, nset=Part-1-1__PICKEDSET2_#21
 2462, 3462
*Elset, elset=Part-1-1__PICKEDSET2_#21
 2878,
*Nset, nset=Part-1-1__PICKEDSET2_#22
 2462, 3463
*Elset, elset=Part-1-1__PICKEDSET2_#22
 2879,
*Nset, nset=Part-1-1__PICKEDSET2_#23
 2621, 2771
*Elset, elset=Part-1-1__PICKEDSET2_#23
 2880,
*Nset, nset=Part-1-1__PICKEDSET2_#24
 2771, 3320
*Elset, elset=Part-1-1__PICKEDSET2_#24
 2881,
*Nset, nset=Part-1-1__PICKEDSET2_#25
 2771, 3319
*Elset, elset=Part-1-1__PICKEDSET2_#25
 2882,
*Nset, nset=Part-1-1__PICKEDSET2_#26
 2771, 4020
*Elset, elset=Part-1-1__PICKEDSET2_#26
 2883,
*Nset, nset=Part-1-1__PICKEDSET2_#27
 2771, 4021
*Elset, elset=Part-1-1__PICKEDSET2_#27
 2884,
*Elset, elset=Part-1-1_Set-28
 2174, 2175, 2176, 2177, 2178, 2179, 2180, 2181, 2182, 2183, 2184, 2185, 2186, 2187, 2188, 2220
 2221, 2222, 2223, 2224, 2225, 2226, 2227, 2228, 2229, 2230, 2231, 2232, 2233, 2234, 2292, 2293
 2294, 2295, 2296, 2297, 2298, 2299, 2300, 2301, 2302, 2303, 2304, 2305, 2306, 2382, 2383, 2384
 2385, 2386, 2387, 2388, 2389, 2390, 2391, 2392, 2393, 2394, 2395, 2396, 2454, 2455, 2456, 2457
 2458, 2459, 2460, 2461, 2462, 2463, 2464, 2465, 2466, 2467, 2468, 2526, 2527, 2528, 2529, 2530
 2531, 2532, 2533, 2534, 2535, 2536, 2537, 2538, 2539, 2540, 2572, 2573, 2574, 2575, 2576, 2577
 2578, 2579, 2580, 2581, 2582, 2583, 2584, 2585, 2586, 2644, 2645, 2646, 2647, 2648, 2649, 2650
 2651, 2652, 2653, 2654, 2655, 2656, 2657, 2658, 2734, 2735, 2736, 2737, 2738, 2739, 2740, 2741
 2742, 2743, 2744, 2745, 2746, 2747, 2748, 2806, 2807, 2808, 2809, 2810, 2811, 2812, 2813, 2814
 2815, 2816, 2817, 2818, 2819, 2820
*Elset, elset=Part-1-1_Set-29
 2189, 2190, 2191, 2192, 2193, 2194, 2195, 2196, 2197, 2198, 2199, 2200, 2201, 2202, 2203, 2235
 2236, 2237, 2238, 2239, 2240, 2241, 2242, 2243, 2244, 2245, 2246, 2247, 2248, 2249, 2307, 2308
 2309, 2310, 2311, 2312, 2313, 2314, 2315, 2316, 2317, 2318, 2319, 2320, 2321, 2426, 2427, 2428
 2429, 2430, 2431, 2432, 2433, 2434, 2435, 2436, 2437, 2438, 2439, 2440, 2498, 2499, 2500, 2501
 2502, 2503, 2504, 2505, 2506, 2507, 2508, 2509, 2510, 2511, 2512, 2541, 2542, 2543, 2544, 2545
 2546, 2547, 2548, 2549, 2550, 2551, 2552, 2553, 2554, 2555, 2587, 2588, 2589, 2590, 2591, 2592
 2593, 2594, 2595, 2596, 2597, 2598, 2599, 2600, 2601, 2659, 2660, 2661, 2662, 2663, 2664, 2665
 2666, 2667, 2668, 2669, 2670, 2671, 2672, 2673, 2778, 2779, 2780, 2781, 2782, 2783, 2784, 2785
 2786, 2787, 2788, 2789, 2790, 2791, 2792, 2850, 2851, 2852, 2853, 2854, 2855, 2856, 2857, 2858
 2859, 2860, 2861, 2862, 2863, 2864
*Elset, elset=Part-1-1_Set-30
 2161, 2162, 2163, 2164, 2165, 2166, 2167, 2168, 2169, 2170, 2171, 2172, 2173, 2258, 2259, 2260
 2261, 2262, 2263, 2264, 2265, 2266, 2267, 2268, 2269, 2270, 2271, 2272, 2273, 2274, 2275, 2276
 2277, 2278, 2279, 2280, 2281, 2282, 2283, 2322, 2323, 2324, 2325, 2326, 2327, 2328, 2329, 2330
 2331, 2332, 2333, 2334, 2343, 2344, 2345, 2346, 2347, 2348, 2349, 2350, 2351, 2352, 2353, 2354
 2355, 2356, 2357, 2358, 2359, 2360, 2361, 2362, 2363, 2364, 2365, 2366, 2367, 2368, 2369, 2370
 2371, 2372, 2373, 2374, 2375, 2376, 2377, 2378, 2379, 2380, 2381, 2405, 2406, 2407, 2408, 2409
 2410, 2411, 2412, 2413, 2414, 2415, 2416, 2417, 2441, 2442, 2443, 2444, 2445, 2446, 2447, 2448
 2449, 2450, 2451, 2452, 2453, 2477, 2478, 2479, 2480, 2481, 2482, 2483, 2484, 2485, 2486, 2487
 2488, 2489, 2513, 2514, 2515, 2516, 2517, 2518, 2519, 2520, 2521, 2522, 2523, 2524, 2525, 2610
 2611, 2612, 2613, 2614, 2615, 2616, 2617, 2618, 2619, 2620, 2621, 2622, 2623, 2624, 2625, 2626
 2627, 2628, 2629, 2630, 2631, 2632, 2633, 2634, 2635, 2674, 2675, 2676, 2677, 2678, 2679, 2680
 2681, 2682, 2683, 2684, 2685, 2686, 2695, 2696, 2697, 2698, 2699, 2700, 2701, 2702, 2703, 2704
 2705, 2706, 2707, 2708, 2709, 2710, 2711, 2712, 2713, 2714, 2715, 2716, 2717, 2718, 2719, 2720
 2721, 2722, 2723, 2724, 2725, 2726, 2727, 2728, 2729, 2730, 2731, 2732, 2733, 2757, 2758, 2759
 2760, 2761, 2762, 2763, 2764, 2765, 2766, 2767, 2768, 2769, 2793, 2794, 2795, 2796, 2797, 2798
 2799, 2800, 2801, 2802, 2803, 2804, 2805, 2829, 2830, 2831, 2832, 2833, 2834, 2835, 2836, 2837
 2838, 2839, 2840, 2841
** Section: Section-6-_PICKEDSET20
*Shell Section, elset=Part-1-1__PICKEDSET20_#1, material=CONCRETE
1., 5
** Section: Section-7-_PICKEDSET4
*Solid Section, elset=Part-1-1__PICKEDSET4_#2, material=CONCRETE
,
** Section: Section-7-_PICKEDSET4
*Solid Section, elset=Part-1-1__PICKEDSET4_#3, material=CONCRETE
,
** Section: Section-8-_PICKEDSET2
*Solid Section, elset=Part-1-1__PICKEDSET2_#4, material=GRANITE
,
** Section: Section-8-_PICKEDSET2
*Solid Section, elset=Part-1-1__PICKEDSET2_#5, material=GRANITE
,
** Region: (Section-9-_PICKEDSET2:Picked), (Beam Orientation:Set-30)
*Elset, elset=Part-1-1__I6
 2161, 2162, 2163, 2164, 2165, 2166, 2167, 2168, 2169, 2170, 2171, 2172, 2173, 2258, 2259, 2260
 2261, 2262, 2263, 2264, 2265, 2266, 2267, 2268, 2269, 2270, 2271, 2272, 2273, 2274, 2275, 2276
 2277, 2278, 2279, 2280, 2281, 2282, 2283, 2322, 2323, 2324, 2325, 2326, 2327, 2328, 2329, 2330
 2331, 2332, 2333, 2334, 2343, 2344, 2345, 2346, 2347, 2348, 2349, 2350, 2351, 2352, 2353, 2354
 2355, 2356, 2357, 2358, 2359, 2360, 2361, 2362, 2363, 2364, 2365, 2366, 2367, 2368, 2369, 2370
 2371, 2372, 2373, 2374, 2375, 2376, 2377, 2378, 2379, 2380, 2381, 2405, 2406, 2407, 2408, 2409
 2410, 2411, 2412, 2413, 2414, 2415, 2416, 2417, 2441, 2442, 2443, 2444, 2445, 2446, 2447, 2448
 2449, 2450, 2451, 2452, 2453, 2477, 2478, 2479, 2480, 2481, 2482, 2483, 2484, 2485, 2486, 2487
 2488, 2489
** Section: Section-9-_PICKEDSET2  Profile: Profile-1
*Beam Section, elset=Part-1-1__I6, material=ALUMINUM, temperature=GRADIENTS, section=BOX
2., 2., 0.1, 0.1, 0.1, 0.1
0.,0.,-1.
** Region: (Section-9-_PICKEDSET2:Picked), (Beam Orientation:Set-28)
*Elset, elset=Part-1-1__I7
 2174, 2175, 2176, 2177, 2178, 2179, 2180, 2181, 2182, 2183, 2184, 2185, 2186, 2187, 2188, 2220
 2221, 2222, 2223, 2224, 2225, 2226, 2227, 2228, 2229, 2230, 2231, 2232, 2233, 2234, 2292, 2293
 2294, 2295, 2296, 2297, 2298, 2299, 2300, 2301, 2302, 2303, 2304, 2305, 2306, 2382, 2383, 2384
 2385, 2386, 2387, 2388, 2389, 2390, 2391, 2392, 2393, 2394, 2395, 2396, 2454, 2455, 2456, 2457
 2458, 2459, 2460, 2461, 2462, 2463, 2464, 2465, 2466, 2467, 2468
** Section: Section-9-_PICKEDSET2  Profile: Profile-1
*Beam Section, elset=Part-1-1__I7, material=ALUMINUM, temperature=GRADIENTS, section=BOX
2., 2., 0.1, 0.1, 0.1, 0.1
0.,0.,-1.
** Region: (Section-9-_PICKEDSET2:Picked), (Beam Orientation:Set-29)
*Elset, elset=Part-1-1__I8
 2189, 2190, 2191, 2192, 2193, 2194, 2195, 2196, 2197, 2198, 2199, 2200, 2201, 2202, 2203, 2235
 2236, 2237, 2238, 2239, 2240, 2241, 2242, 2243, 2244, 2245, 2246, 2247, 2248, 2249, 2307, 2308
 2309, 2310, 2311, 2312, 2313, 2314, 2315, 2316, 2317, 2318, 2319, 2320, 2321, 2426, 2427, 2428
 2429, 2430, 2431, 2432, 2433, 2434, 2435, 2436, 2437, 2438, 2439, 2440, 2498, 2499, 2500, 2501
 2502, 2503, 2504, 2505, 2506, 2507, 2508, 2509, 2510, 2511, 2512
** Section: Section-9-_PICKEDSET2  Profile: Profile-1
*Beam Section, elset=Part-1-1__I8, material=ALUMINUM, temperature=GRADIENTS, section=BOX
2., 2., 0.1, 0.1, 0.1, 0.1
0.,0.,-1.
** Region: (Section-9-_PICKEDSET2:Picked)
*Elset, elset=Part-1-1__I9
 2204, 2205, 2206, 2207, 2208, 2209, 2210, 2211, 2212, 2213, 2214, 2215, 2216, 2217, 2218, 2219
 2250, 2251, 2252, 2253, 2254, 2255, 2256, 2257, 2284, 2285, 2286, 2287, 2288, 2289, 2290, 2291
 2335, 2336, 2337, 2338, 2339, 2340, 2341, 2342, 2397, 2398, 2399, 2400, 2401, 2402, 2403, 2404
 2418, 2419, 2420, 2421, 2422, 2423, 2424, 2425, 2469, 2470, 2471, 2472, 2473, 2474, 2475, 2476
 2490, 2491, 2492, 2493, 2494, 2495, 2496, 2497
** Section: Section-9-_PICKEDSET2  Profile: Profile-1
*Beam Section, elset=Part-1-1__I9, material=ALUMINUM, temperature=GRADIENTS, section=BOX
2., 2., 0.1, 0.1, 0.1, 0.1
0.,0.,-1.
** Region: (Section-9-_PICKEDSET2:Picked), (Beam Orientation:Set-30)
*Elset, elset=Part-1-1__I10
 2513, 2514, 2515, 2516, 2517, 2518, 2519, 2520, 2521, 2522, 2523, 2524, 2525, 2610, 2611, 2612
 2613, 2614, 2615, 2616, 2617, 2618, 2619, 2620, 2621, 2622, 2623, 2624, 2625, 2626, 2627, 2628
 2629, 2630, 2631, 2632, 2633, 2634, 2635, 2674, 2675, 2676, 2677, 2678, 2679, 2680, 2681, 2682
 2683, 2684, 2685, 2686, 2695, 2696, 2697, 2698, 2699, 2700, 2701, 2702, 2703, 2704, 2705, 2706
 2707, 2708, 2709, 2710, 2711, 2712, 2713, 2714, 2715, 2716, 2717, 2718, 2719, 2720, 2721, 2722
 2723, 2724, 2725, 2726, 2727, 2728, 2729, 2730, 2731, 2732, 2733, 2757, 2758, 2759, 2760, 2761
 2762, 2763, 2764, 2765, 2766, 2767, 2768, 2769, 2793, 2794, 2795, 2796, 2797, 2798, 2799, 2800
 2801, 2802, 2803, 2804, 2805, 2829, 2830, 2831, 2832, 2833, 2834, 2835, 2836, 2837, 2838, 2839
 2840, 2841
** Section: Section-9-_PICKEDSET2  Profile: Profile-1
*Beam Section, elset=Part-1-1__I10, material=ALUMINUM, temperature=GRADIENTS, section=BOX
2., 2., 0.1, 0.1, 0.1, 0.1
0.,0.,-1.
** Region: (Section-9-_PICKEDSET2:Picked), (Beam Orientation:Set-28)
*Elset, elset=Part-1-1__I11
 2526, 2527, 2528, 2529, 2530, 2531, 2532, 2533, 2534, 2535, 2536, 2537, 2538, 2539, 2540, 2572
 2573, 2574, 2575, 2576, 2577, 2578, 2579, 2580, 2581, 2582, 2583, 2584, 2585, 2586, 2644, 2645
 2646, 2647, 2648, 2649, 2650, 2651, 2652, 2653, 2654, 2655, 2656, 2657, 2658, 2734, 2735, 2736
 2737, 2738, 2739, 2740, 2741, 2742, 2743, 2744, 2745, 2746, 2747, 2748, 2806, 2807, 2808, 2809
 2810, 2811, 2812, 2813, 2814, 2815, 2816, 2817, 2818, 2819, 2820
** Section: Section-9-_PICKEDSET2  Profile: Profile-1
*Beam Section, elset=Part-1-1__I11, material=ALUMINUM, temperature=GRADIENTS, section=BOX
2., 2., 0.1, 0.1, 0.1, 0.1
0.,0.,-1.
** Region: (Section-9-_PICKEDSET2:Picked), (Beam Orientation:Set-29)
*Elset, elset=Part-1-1__I12
 2541, 2542, 2543, 2544, 2545, 2546, 2547, 2548, 2549, 2550, 2551, 2552, 2553, 2554, 2555, 2587
 2588, 2589, 2590, 2591, 2592, 2593, 2594, 2595, 2596, 2597, 2598, 2599, 2600, 2601, 2659, 2660
 2661, 2662, 2663, 2664, 2665, 2666, 2667, 2668, 2669, 2670, 2671, 2672, 2673, 2778, 2779, 2780
 2781, 2782, 2783, 2784, 2785, 2786, 2787, 2788, 2789, 2790, 2791, 2792, 2850, 2851, 2852, 2853
 2854, 2855, 2856, 2857, 2858, 2859, 2860, 2861, 2862, 2863, 2864
** Section: Section-9-_PICKEDSET2  Profile: Profile-1
*Beam Section, elset=Part-1-1__I12, material=ALUMINUM, temperature=GRADIENTS, section=BOX
2., 2., 0.1, 0.1, 0.1, 0.1
0.,0.,-1.
** Region: (Section-9-_PICKEDSET2:Picked)
*Elset, elset=Part-1-1__I13
 2556, 2557, 2558, 2559, 2560, 2561, 2562, 2563, 2564, 2565, 2566, 2567, 2568, 2569, 2570, 2571
 2602, 2603, 2604, 2605, 2606, 2607, 2608, 2609, 2636, 2637, 2638, 2639, 2640, 2641, 2642, 2643
 2687, 2688, 2689, 2690, 2691, 2692, 2693, 2694, 2749, 2750, 2751, 2752, 2753, 2754, 2755, 2756
 2770, 2771, 2772, 2773, 2774, 2775, 2776, 2777, 2821, 2822, 2823, 2824, 2825, 2826, 2827, 2828
 2842, 2843, 2844, 2845, 2846, 2847, 2848, 2849
** Section: Section-9-_PICKEDSET2  Profile: Profile-1
*Beam Section, elset=Part-1-1__I13, material=ALUMINUM, temperature=GRADIENTS, section=BOX
2., 2., 0.1, 0.1, 0.1, 0.1
0.,0.,-1.
** Section: Section-1-_PICKEDSET2
*Solid Section, elset=Part-1-1__PICKEDSET2_#8, material=STEEL
0.25,
** Section: Section-2-_PICKEDSET2
*Solid Section, elset=Part-1-1__PICKEDSET2_#9, material=STEEL
0.25,
** Section: Section-3-_PICKEDSET2
*Solid Section, elset=Part-1-1__PICKEDSET2_#10, material=STEEL
0.25,
** Section: Section-4-_PICKEDSET2
*Solid Section, elset=Part-1-1__PICKEDSET2_#11, material=STEEL
0.25,
** Section: Section-5-_PICKEDSET2
*Solid Section, elset=Part-1-1__PICKEDSET2_#12, material=STEEL
0.25,
** Section: Section-1-_PICKEDSET2
*Solid Section, elset=Part-1-1__PICKEDSET2_#13, material=STEEL
0.25,
** Section: Section-2-_PICKEDSET2
*Solid Section, elset=Part-1-1__PICKEDSET2_#14, material=STEEL
0.25,
** Section: Section-3-_PICKEDSET2
*Solid Section, elset=Part-1-1__PICKEDSET2_#15, material=STEEL
0.25,
** Section: Section-4-_PICKEDSET2
*Solid Section, elset=Part-1-1__PICKEDSET2_#16, material=STEEL
0.25,
** Section: Section-5-_PICKEDSET2
*Solid Section, elset=Part-1-1__PICKEDSET2_#17, material=STEEL
0.25,
** Section: Section-1-_PICKEDSET2
*Solid Section, elset=Part-1-1__PICKEDSET2_#18, material=STEEL
0.25,
** Section: Section-2-_PICKEDSET2
*Solid Section, elset=Part-1-1__PICKEDSET2_#19, material=STEEL
0.25,
** Section: Section-3-_PICKEDSET2
*Solid Section, elset=Part-1-1__PICKEDSET2_#20, material=STEEL
0.25,
** Section: Section-4-_PICKEDSET2
*Solid Section, elset=Part-1-1__PICKEDSET2_#21, material=STEEL
0.25,
** Section: Section-5-_PICKEDSET2
*Solid Section, elset=Part-1-1__PICKEDSET2_#22, material=STEEL
0.25,
** Section: Section-1-_PICKEDSET2
*Solid Section, elset=Part-1-1__PICKEDSET2_#23, material=STEEL
0.25,
** Section: Section-2-_PICKEDSET2
*Solid Section, elset=Part-1-1__PICKEDSET2_#24, material=STEEL
0.25,
** Section: Section-3-_PICKEDSET2
*Solid Section, elset=Part-1-1__PICKEDSET2_#25, material=STEEL
0.25,
** Section: Section-4-_PICKEDSET2
*Solid Section, elset=Part-1-1__PICKEDSET2_#26, material=STEEL
0.25,
** Section: Section-5-_PICKEDSET2
*Solid Section, elset=Part-1-1__PICKEDSET2_#27, material=STEEL
0.25,
*System
*Nset, nset=M_SET-6
 4020,
*Nset, nset=M_SET-8
 3319,
*Nset, nset=M_SET-10
 3320,
*Nset, nset=M_SET-12
 4021,
*Nset, nset=M_SET-13
 2621,
*Nset, nset=M_SET-14
 3463,
*Nset, nset=M_SET-16
 3462,
*Nset, nset=M_SET-18
 3171,
*Nset, nset=M_SET-20
 3172,
*Nset, nset=M_SET-22
 2312,
*Nset, nset=M_SET-24
 642,
*Nset, nset=M_SET-26
 896,
*Nset, nset=M_SET-28
 895,
*Nset, nset=M_SET-30
 1522,
*Nset, nset=M_SET-32
 1521,
*Nset, nset=M_SET-34
 96,
*Nset, nset=M_SET-36
 748,
*Nset, nset=M_SET-38
 747,
*Nset, nset=M_SET-40
 1251,
*Nset, nset=M_SET-42
 1250,
** ... 48 like lines cut
*Elset, elset=M_SET-90, generate
 1781,  1784,     1
*Nset, nset=M_SET-92
  96, 234, 441, 442, 642
*Elset, elset=M_SET-92, generate
 1597,  1600,     1
*Nset, nset=M_SET-94
 2462,
*Nset, nset=M_SET-96
 2462,
*Nset, nset=M_SET-98
 2771,
*Nset, nset=M_SET-100
 2771,
*Nset, nset=SET-102
    3,    4,   24,   25,   26,   27,   28,   29,   30,   31,   32,  159,  160,  180,  181,  182
  183,  184,  185,  186,  187,  188,  291,  292,  293,  294,  333,  334,  335,  336,  337,  338
  339,  340,  341,  342,  343,  344,  345,  346,  347,  348,  349,  350,  549,  550,  570,  571
  572,  573,  574,  575,  576,  577,  578,  939,  940,  941,  942,  949,  950, 1185, 1186, 1187
 1456, 1457, 1458, 1667, 1668, 1669, 1670, 1677, 1678, 1913, 1914, 1915, 1922, 1923, 1924, 1937
 1938, 2241, 2242, 2249, 2250, 2550, 2551, 2558, 2559, 2799, 2800, 2801, 2808, 2809, 2810, 2823
 2824, 3365, 3366, 3386, 3387, 3388, 3389, 3390, 3391, 3392, 3393, 3394, 3530, 3531, 3551, 3552
 3553, 3554, 3555, 3556, 3557, 3558, 3559, 3663, 3664, 3665, 3666, 3705, 3706, 3707, 3708, 3709
 3710, 3711, 3712, 3713, 3714, 3715, 3716, 3717, 3718, 3719, 3720, 3721, 3722, 3923, 3924, 3944
 3945, 3946, 3947, 3948, 3949, 3950, 3951, 3952
*Elset, elset=SET-102
  401,  402,  403,  404,  405,  406,  641,  642,  643,  644,  645,  646,  881,  882,  883,  884
  885,  886, 1121, 1122, 1123, 1124, 1125, 1126, 1613, 1614, 1615, 1616, 1629, 1630, 1631, 1632
 1645, 1646, 1647, 1648, 1661, 1662, 1663, 1664, 1677, 1678, 1679, 1680, 1693, 1694, 1695, 1696
 1709, 1710, 1711, 1712, 1725, 1726, 1727, 1728, 1741, 1742, 1743, 1744, 1757, 1758, 1759, 1760
 2013, 2014, 2015, 2016, 2029, 2030, 2031, 2032, 2045, 2046, 2047, 2048, 2061, 2062, 2063, 2064
 2077, 2078, 2079, 2080, 2093, 2094, 2095, 2096, 2109, 2110, 2111, 2112, 2125, 2126, 2127, 2128
 2141, 2142, 2143, 2144, 2157, 2158, 2159, 2160
*Nset, nset=SET-CABLESGROUP1
   96,  747,  748, 1250, 1251, 2462
*Elset, elset=SET-CABLESGROUP1, generate
 2865,  2869,     1
*Nset, nset=SET-CABLESGROUP2
  642,  895,  896, 1521, 1522, 2771
*Elset, elset=SET-CABLESGROUP2, generate
 2870,  2874,     1
*Nset, nset=SET-CABLESGROUP3
 2312, 2462, 3171, 3172, 3462, 3463
*Elset, elset=SET-CABLESGROUP3, generate
 2875,  2879,     1
*Nset, nset=S_SET-6
 4020,
*Nset, nset=S_SET-8
 3319,
*Nset, nset=S_SET-10
 3320,
*Nset, nset=S_SET-12
 4021,
*Nset, nset=S_SET-13
 2621,
*Nset, nset=S_SET-14
 3463,
*Nset, nset=S_SET-16
 3462,
*Nset, nset=S_SET-18
 3171,
*Nset, nset=S_SET-20
 3172,
*Nset, nset=S_SET-22
 2312,
*Nset, nset=S_SET-24
 642,
*Nset, nset=S_SET-26
 896,
*Nset, nset=S_SET-28
 895,
*Nset, nset=S_SET-30
 1522,
*Nset, nset=S_SET-32
 1521,
*Nset, nset=S_SET-34
 96,
*Nset, nset=S_SET-36
 748,
*Nset, nset=S_SET-38
 747,
*Nset, nset=S_SET-40
 1251,
*Nset, nset=S_SET-42
** ... 49 like lines cut
*Elset, elset=S_SET-90, generate
 397,  400,    1
*Nset, nset=S_SET-92
  96, 234, 441, 442, 642
*Elset, elset=S_SET-92, generate
 357,  360,    1
*Nset, nset=S_SET-94
 2462,
*Nset, nset=S_SET-96
 2462,
*Nset, nset=S_SET-98
 2771,
*Nset, nset=S_SET-100
 2771,
*Nset, nset=M_SET-6_CNS_
 4020,
*Nset, nset=M_SET-8_CNS_
 3319,
*Nset, nset=M_SET-10_CNS_
 3320,
*Nset, nset=M_SET-12_CNS_
 4021,
*Nset, nset=M_SET-13_CNS_
 2621,
*Nset, nset=M_SET-14_CNS_
 3463,
*Nset, nset=M_SET-16_CNS_
 3462,
*Nset, nset=M_SET-18_CNS_
 3171,
*Nset, nset=M_SET-20_CNS_
 3172,
*Nset, nset=M_SET-22_CNS_
 2312,
*Nset, nset=M_SET-24_CNS_
 642,
*Nset, nset=M_SET-26_CNS_
 896,
*Nset, nset=M_SET-28_CNS_
 895,
*Nset, nset=M_SET-30_CNS_
 1522,
*Nset, nset=M_SET-32_CNS_
 1521,
*Nset, nset=M_SET-34_CNS_
 96,
*Nset, nset=M_SET-36_CNS_
 748,
*Nset, nset=M_SET-38_CNS_
 747,
*Nset, nset=M_SET-40_CNS_
 1251,
*Nset, nset=M_SET-42_CNS_
** ... 57 like lines cut
*Nset, nset=S_SET-6_CNS_
 4020,
*Nset, nset=S_SET-8_CNS_
 3319,
*Nset, nset=S_SET-10_CNS_
 3320,
*Nset, nset=S_SET-12_CNS_
 4021,
*Nset, nset=S_SET-13_CNS_
 2621,
*Nset, nset=S_SET-14_CNS_
 3463,
*Nset, nset=S_SET-16_CNS_
 3462,
*Nset, nset=S_SET-18_CNS_
 3171,
*Nset, nset=S_SET-20_CNS_
 3172,
*Nset, nset=S_SET-22_CNS_
 2312,
*Nset, nset=S_SET-24_CNS_
 642,
*Nset, nset=S_SET-26_CNS_
 896,
*Nset, nset=S_SET-28_CNS_
 895,
*Nset, nset=S_SET-30_CNS_
 1522,
*Nset, nset=S_SET-32_CNS_
 1521,
*Nset, nset=S_SET-34_CNS_
 96,
*Nset, nset=S_SET-36_CNS_
 748,
*Nset, nset=S_SET-38_CNS_
 747,
*Nset, nset=S_SET-40_CNS_
 1251,
*Nset, nset=S_SET-42_CNS_
 1250,
** ... 56 like lines cut
*Surface, type=NODE, name=M_SET-6_CNS__CNS_
M_SET-6_CNS_, 1.
*Surface, type=NODE, name=S_SET-6_CNS__CNS_
S_SET-6_CNS_, 1.
*Surface, type=NODE, name=M_SET-8_CNS__CNS_
M_SET-8_CNS_, 1.
*Surface, type=NODE, name=S_SET-8_CNS__CNS_
S_SET-8_CNS_, 1.
*Surface, type=NODE, name=M_SET-10_CNS__CNS_
M_SET-10_CNS_, 1.
*Surface, type=NODE, name=S_SET-10_CNS__CNS_
S_SET-10_CNS_, 1.
*Surface, type=NODE, name=M_SET-12_CNS__CNS_
M_SET-12_CNS_, 1.
*Surface, type=NODE, name=S_SET-12_CNS__CNS_
S_SET-12_CNS_, 1.
*Surface, type=NODE, name=M_SET-13_CNS__CNS_
M_SET-13_CNS_, 1.
*Surface, type=NODE, name=S_SET-13_CNS__CNS_
S_SET-13_CNS_, 1.
*Surface, type=NODE, name=M_SET-14_CNS__CNS_
M_SET-14_CNS_, 1.
*Surface, type=NODE, name=S_SET-14_CNS__CNS_
S_SET-14_CNS_, 1.
*Surface, type=NODE, name=M_SET-16_CNS__CNS_
M_SET-16_CNS_, 1.
*Surface, type=NODE, name=S_SET-16_CNS__CNS_
S_SET-16_CNS_, 1.
*Surface, type=NODE, name=M_SET-18_CNS__CNS_
M_SET-18_CNS_, 1.
*Surface, type=NODE, name=S_SET-18_CNS__CNS_
S_SET-18_CNS_, 1.
*Surface, type=NODE, name=M_SET-20_CNS__CNS_
M_SET-20_CNS_, 1.
*Surface, type=NODE, name=S_SET-20_CNS__CNS_
S_SET-20_CNS_, 1.
*Surface, type=NODE, name=M_SET-22_CNS__CNS_
M_SET-22_CNS_, 1.
*Surface, type=NODE, name=S_SET-22_CNS__CNS_
S_SET-22_CNS_, 1.
*Surface, type=NODE, name=M_SET-24_CNS__CNS_
M_SET-24_CNS_, 1.
*Surface, type=NODE, name=S_SET-24_CNS__CNS_
S_SET-24_CNS_, 1.
*Surface, type=NODE, name=M_SET-26_CNS__CNS_
M_SET-26_CNS_, 1.
*Surface, type=NODE, name=S_SET-26_CNS__CNS_
S_SET-26_CNS_, 1.
*Surface, type=NODE, name=M_SET-28_CNS__CNS_
M_SET-28_CNS_, 1.
*Surface, type=NODE, name=S_SET-28_CNS__CNS_
S_SET-28_CNS_, 1.
*Surface, type=NODE, name=M_SET-30_CNS__CNS_
M_SET-30_CNS_, 1.
*Surface, type=NODE, name=S_SET-30_CNS__CNS_
S_SET-30_CNS_, 1.
*Surface, type=NODE, name=M_SET-32_CNS__CNS_
M_SET-32_CNS_, 1.
*Surface, type=NODE, name=S_SET-32_CNS__CNS_
S_SET-32_CNS_, 1.
*Surface, type=NODE, name=M_SET-34_CNS__CNS_
M_SET-34_CNS_, 1.
*Surface, type=NODE, name=S_SET-34_CNS__CNS_
S_SET-34_CNS_, 1.
*Surface, type=NODE, name=M_SET-36_CNS__CNS_
M_SET-36_CNS_, 1.
*Surface, type=NODE, name=S_SET-36_CNS__CNS_
S_SET-36_CNS_, 1.
*Surface, type=NODE, name=M_SET-38_CNS__CNS_
M_SET-38_CNS_, 1.
*Surface, type=NODE, name=S_SET-38_CNS__CNS_
S_SET-38_CNS_, 1.
*Surface, type=NODE, name=M_SET-40_CNS__CNS_
M_SET-40_CNS_, 1.
*Surface, type=NODE, name=S_SET-40_CNS__CNS_
S_SET-40_CNS_, 1.
*Surface, type=NODE, name=M_SET-42_CNS__CNS_
M_SET-42_CNS_, 1.
*Surface, type=NODE, name=S_SET-42_CNS__CNS_
S_SET-42_CNS_, 1.
*Surface, type=NODE, name=M_SET-46_CNS__CNS_
M_SET-46_CNS_, 1.
*Surface, type=NODE, name=S_SET-46_CNS__CNS_
S_SET-46_CNS_, 1.
*Surface, type=NODE, name=M_SET-48_CNS__CNS_
M_SET-48_CNS_, 1.
*Surface, type=NODE, name=S_SET-48_CNS__CNS_
S_SET-48_CNS_, 1.
*Surface, type=NODE, name=M_SET-50_CNS__CNS_
M_SET-50_CNS_, 1.
*Surface, type=NODE, name=S_SET-50_CNS__CNS_
S_SET-50_CNS_, 1.
*Surface, type=NODE, name=M_SET-52_CNS__CNS_
M_SET-52_CNS_, 1.
*Surface, type=NODE, name=S_SET-52_CNS__CNS_
S_SET-52_CNS_, 1.
*Surface, type=NODE, name=M_SET-54_CNS__CNS_
M_SET-54_CNS_, 1.
*Surface, type=NODE, name=S_SET-54_CNS__CNS_
S_SET-54_CNS_, 1.
*Surface, type=NODE, name=M_SET-56_CNS__CNS_
M_SET-56_CNS_, 1.
*Surface, type=NODE, name=S_SET-56_CNS__CNS_
S_SET-56_CNS_, 1.
*Surface, type=NODE, name=M_SET-58_CNS__CNS_
M_SET-58_CNS_, 1.
*Surface, type=NODE, name=S_SET-58_CNS__CNS_
S_SET-58_CNS_, 1.
*Surface, type=NODE, name=M_SET-60_CNS__CNS_
M_SET-60_CNS_, 1.
*Surface, type=NODE, name=S_SET-60_CNS__CNS_
S_SET-60_CNS_, 1.
*Surface, type=NODE, name=M_SET-62_CNS__CNS_
M_SET-62_CNS_, 1.
*Surface, type=NODE, name=S_SET-62_CNS__CNS_
S_SET-62_CNS_, 1.
*Surface, type=NODE, name=M_SET-64_CNS__CNS_
M_SET-64_CNS_, 1.
*Surface, type=NODE, name=S_SET-64_CNS__CNS_
S_SET-64_CNS_, 1.
*Surface, type=NODE, name=M_SET-66_CNS__CNS_
M_SET-66_CNS_, 1.
*Surface, type=NODE, name=S_SET-66_CNS__CNS_
S_SET-66_CNS_, 1.
*Surface, type=NODE, name=M_SET-68_CNS__CNS_
M_SET-68_CNS_, 1.
*Surface, type=NODE, name=S_SET-68_CNS__CNS_
S_SET-68_CNS_, 1.
*Surface, type=NODE, name=M_SET-70_CNS__CNS_
M_SET-70_CNS_, 1.
*Surface, type=NODE, name=S_SET-70_CNS__CNS_
S_SET-70_CNS_, 1.
*Surface, type=NODE, name=M_SET-72_CNS__CNS_
M_SET-72_CNS_, 1.
*Surface, type=NODE, name=S_SET-72_CNS__CNS_
S_SET-72_CNS_, 1.
*Surface, type=NODE, name=M_SET-74_CNS__CNS_
M_SET-74_CNS_, 1.
*Surface, type=NODE, name=S_SET-74_CNS__CNS_
S_SET-74_CNS_, 1.
*Surface, type=NODE, name=M_SET-76_CNS__CNS_
M_SET-76_CNS_, 1.
*Surface, type=NODE, name=S_SET-76_CNS__CNS_
S_SET-76_CNS_, 1.
*Surface, type=NODE, name=M_SET-78_CNS__CNS_
M_SET-78_CNS_, 1.
*Surface, type=NODE, name=S_SET-78_CNS__CNS_
S_SET-78_CNS_, 1.
*Surface, type=NODE, name=M_SET-80_CNS__CNS_
M_SET-80_CNS_, 1.
*Surface, type=NODE, name=S_SET-80_CNS__CNS_
S_SET-80_CNS_, 1.
*Surface, type=NODE, name=M_SET-82_CNS__CNS_
M_SET-82_CNS_, 1.
*Surface, type=NODE, name=S_SET-82_CNS__CNS_
S_SET-82_CNS_, 1.
*Surface, type=NODE, name=M_SET-84_CNS__CNS_
M_SET-84_CNS_, 1.
*Surface, type=NODE, name=S_SET-84_CNS__CNS_
S_SET-84_CNS_, 1.
*Surface, type=NODE, name=M_SET-86_CNS__CNS_
M_SET-86_CNS_, 1.
*Surface, type=NODE, name=S_SET-86_CNS__CNS_
S_SET-86_CNS_, 1.
*Surface, type=NODE, name=M_SET-88_CNS__CNS_
M_SET-88_CNS_, 1.
*Surface, type=NODE, name=S_SET-88_CNS__CNS_
S_SET-88_CNS_, 1.
*Surface, type=NODE, name=M_SET-90_CNS__CNS_
M_SET-90_CNS_, 1.
*Surface, type=NODE, name=S_SET-90_CNS__CNS_
S_SET-90_CNS_, 1.
*Surface, type=NODE, name=M_SET-92_CNS__CNS_
M_SET-92_CNS_, 1.
*Surface, type=NODE, name=S_SET-92_CNS__CNS_
S_SET-92_CNS_, 1.
*Surface, type=NODE, name=M_SET-94_CNS__CNS_
M_SET-94_CNS_, 1.
*Surface, type=NODE, name=S_SET-94_CNS__CNS_
S_SET-94_CNS_, 1.
*Surface, type=NODE, name=M_SET-96_CNS__CNS_
M_SET-96_CNS_, 1.
*Surface, type=NODE, name=S_SET-96_CNS__CNS_
S_SET-96_CNS_, 1.
*Surface, type=NODE, name=M_SET-98_CNS__CNS_
M_SET-98_CNS_, 1.
*Surface, type=NODE, name=S_SET-98_CNS__CNS_
S_SET-98_CNS_, 1.
*Surface, type=NODE, name=M_SET-100_CNS__CNS_
M_SET-100_CNS_, 1.
*Surface, type=NODE, name=S_SET-100_CNS__CNS_
S_SET-100_CNS_, 1.
** Constraint: CONSTRAINT-2-1
*Tie, name=CONSTRAINT-2-1, adjust=yes, no rotation
S_SET-6_CNS__CNS_, M_SET-6_CNS__CNS_
** Constraint: CONSTRAINT-3-1
*Tie, name=CONSTRAINT-3-1, adjust=yes, no rotation
S_SET-8_CNS__CNS_, M_SET-8_CNS__CNS_
** Constraint: CONSTRAINT-4-1
*Tie, name=CONSTRAINT-4-1, adjust=yes, no rotation
S_SET-10_CNS__CNS_, M_SET-10_CNS__CNS_
** Constraint: CONSTRAINT-5-1
*Tie, name=CONSTRAINT-5-1, adjust=yes, no rotation
S_SET-12_CNS__CNS_, M_SET-12_CNS__CNS_
** Constraint: CONSTRAINT-6-1
*Tie, name=CONSTRAINT-6-1, adjust=yes, no rotation
S_SET-13_CNS__CNS_, M_SET-13_CNS__CNS_
** Constraint: CONSTRAINT-7-1
*Tie, name=CONSTRAINT-7-1, adjust=yes
S_SET-14_CNS__CNS_, M_SET-14_CNS__CNS_
** Constraint: CONSTRAINT-8-1
*Tie, name=CONSTRAINT-8-1, adjust=yes
S_SET-16_CNS__CNS_, M_SET-16_CNS__CNS_
** Constraint: CONSTRAINT-9-1
*Tie, name=CONSTRAINT-9-1, adjust=no
S_SET-18_CNS__CNS_, M_SET-18_CNS__CNS_
** Constraint: CONSTRAINT-10-1
*Tie, name=CONSTRAINT-10-1, adjust=yes, no rotation
S_SET-20_CNS__CNS_, M_SET-20_CNS__CNS_
** Constraint: CONSTRAINT-11-1
*Tie, name=CONSTRAINT-11-1, adjust=yes, no rotation
S_SET-22_CNS__CNS_, M_SET-22_CNS__CNS_
** Constraint: CONSTRAINT-12-1
*Tie, name=CONSTRAINT-12-1, adjust=yes, no rotation
S_SET-24_CNS__CNS_, M_SET-24_CNS__CNS_
** Constraint: CONSTRAINT-13-1
*Tie, name=CONSTRAINT-13-1, adjust=yes, no rotation
S_SET-26_CNS__CNS_, M_SET-26_CNS__CNS_
** Constraint: CONSTRAINT-14-1
*Tie, name=CONSTRAINT-14-1, adjust=yes, no rotation
S_SET-28_CNS__CNS_, M_SET-28_CNS__CNS_
** Constraint: CONSTRAINT-15-1
*Tie, name=CONSTRAINT-15-1, adjust=yes, no rotation
S_SET-30_CNS__CNS_, M_SET-30_CNS__CNS_
** Constraint: CONSTRAINT-16-1
*Tie, name=CONSTRAINT-16-1, adjust=yes, no rotation
S_SET-32_CNS__CNS_, M_SET-32_CNS__CNS_
** Constraint: CONSTRAINT-17-1
*Tie, name=CONSTRAINT-17-1, adjust=yes, no rotation
S_SET-34_CNS__CNS_, M_SET-34_CNS__CNS_
** Constraint: CONSTRAINT-18-1
*Tie, name=CONSTRAINT-18-1, adjust=yes, no rotation
S_SET-36_CNS__CNS_, M_SET-36_CNS__CNS_
** Constraint: CONSTRAINT-19-1
*Tie, name=CONSTRAINT-19-1, adjust=yes, no rotation
S_SET-38_CNS__CNS_, M_SET-38_CNS__CNS_
** Constraint: CONSTRAINT-20-1
*Tie, name=CONSTRAINT-20-1, adjust=yes, no rotation
S_SET-40_CNS__CNS_, M_SET-40_CNS__CNS_
** Constraint: CONSTRAINT-21-1
*Tie, name=CONSTRAINT-21-1, adjust=yes, no rotation
S_SET-42_CNS__CNS_, M_SET-42_CNS__CNS_
** Constraint: CONSTRAINT-22-1
*Tie, name=CONSTRAINT-22-1, adjust=yes, no rotation
S_SET-46_CNS__CNS_, M_SET-46_CNS__CNS_
** Constraint: CONSTRAINT-23-1
*Tie, name=CONSTRAINT-23-1, adjust=yes, no rotation
S_SET-48_CNS__CNS_, M_SET-48_CNS__CNS_
** Constraint: CONSTRAINT-24-1
*Tie, name=CONSTRAINT-24-1, adjust=yes, no rotation
S_SET-50_CNS__CNS_, M_SET-50_CNS__CNS_
** Constraint: CONSTRAINT-25-1
*Tie, name=CONSTRAINT-25-1, adjust=yes, no rotation
S_SET-52_CNS__CNS_, M_SET-52_CNS__CNS_
** Constraint: CONSTRAINT-26-1
*Tie, name=CONSTRAINT-26-1, adjust=yes, no rotation
S_SET-54_CNS__CNS_, M_SET-54_CNS__CNS_
** Constraint: CONSTRAINT-27-1
*Tie, name=CONSTRAINT-27-1, adjust=yes, no rotation
S_SET-56_CNS__CNS_, M_SET-56_CNS__CNS_
** Constraint: CONSTRAINT-28-1
*Tie, name=CONSTRAINT-28-1, adjust=yes, no rotation
S_SET-58_CNS__CNS_, M_SET-58_CNS__CNS_
** Constraint: CONSTRAINT-29-1
*Tie, name=CONSTRAINT-29-1, adjust=yes, no rotation
** ... 61 like lines cut
** 
** MATERIALS
** 
**  For the SupportBeam
*Material, name=ALUMINUM
*Density
2710.,
*Elastic
 7e+10, 0.346
**  For the Pier and the Floor
*Material, name=CONCRETE
*Density
2320.,
*Elastic
 2.5e+10, 0.3
**  For the RiverBank
*Material, name=GRANITE
*Density
2770.,
*Elastic
 6e+10, 0.27
**  For the Cable
*Material, name=STEEL
*Density
7860.,
*Elastic
 1.17e+11, 0.266
** ----------------------------------------------------------------
** 
** STEP: Step-1
** 
*Step, name=Step-1, nlgeom=NO
*Static
1., 1., 1e-05, 1.
** 
** BOUNDARY CONDITIONS
** 
** Name: Disp-BC-1 Type: /
*Boundary
SET-102, 1, 1
** Name: Disp-BC-2 Type: /
*Boundary
SET-102, 2, 2
** Name: Disp-BC-3 Type: /
*Boundary
SET-102, 3, 3
** 
** LOADS
** 
** Name: GRAVITY-1   Type: Gravity
*Dload
, GRAV, 10., 0., 0., -1.
** 
** OUTPUT REQUESTS
** 
*Restart, write, frequency=0
** 
** FIELD OUTPUT: F-Output-1
** 
*Output, field, variable=PRESELECT
** 
** HISTORY OUTPUT: H-Output-1
** 
*Output, history, variable=PRESELECT
*End Step
